2024_89_CemigReconfigurationCases/1_SEsCemig/BETT305/BETT305GeradorMT_Dez.dss
new loadshape.c3009009258 npts=24,interval=1.0,mult=[0.0001,0.0001,0.0001,0.0001,0.0001,0.0001,0.17,0.47,0.7,0.9,1,1,0.93,0.8,0.53,0.33,0.2,0.13,0.0001,0.0001,0.0001,0.0001,0.0001,0.0001]
new generator.3009009258 bus1=BMT98876640.1.2.3,Phases=3,kv=13.800000000,kW=35.32168,pf=1,model=1,daily=c3009009258,status=Variable
new loadshape.c3011986422 npts=24,interval=1.0,mult=[0.0001,0.0001,0.0001,0.0001,0.0001,0.0001,0.17,0.47,0.7,0.9,1,1,0.93,0.8,0.53,0.33,0.2,0.13,0.0001,0.0001,0.0001,0.0001,0.0001,0.0001]
new generator.3011986422 bus1=BMT150339001.1.2.3,Phases=3,kv=13.800000000,kW=7.56893,pf=1,model=1,daily=c3011986422,status=Variable
new loadshape.c3012228268 npts=24,interval=1.0,mult=[0.0001,0.0001,0.0001,0.0001,0.0001,0.0001,0.17,0.47,0.7,0.9,1,1,0.93,0.8,0.53,0.33,0.2,0.13,0.0001,0.0001,0.0001,0.0001,0.0001,0.0001]
new generator.3012228268 bus1=BMT165069725.1.2.3,Phases=3,kv=13.800000000,kW=23.65291,pf=1,model=1,daily=c3012228268,status=Variable
new loadshape.c3013261912 npts=24,interval=1.0,mult=[0.0001,0.0001,0.0001,0.0001,0.0001,0.0001,0.17,0.47,0.7,0.9,1,1,0.93,0.8,0.53,0.33,0.2,0.13,0.0001,0.0001,0.0001,0.0001,0.0001,0.0001]
new generator.3013261912 bus1=BMT159814677.1.2.3,Phases=3,kv=13.800000000,kW=83.25824,pf=1,model=1,daily=c3013261912,status=Variable
